/*--------------------------------*- C++ -*----------------------------------*\
| =========                 |                                                 |
| \\      /  F ield         | OpenFOAM: The Open Source CFD Toolbox           |
|  \\    /   O peration     | Version:  2112                                  |
|   \\  /    A nd           | Website:  www.openfoam.com                      |
|    \\/     M anipulation  |                                                 |
\*---------------------------------------------------------------------------*/
FoamFile
{
    version     2.0;
    format      binary;
    arch        "LSB;label=32;scalar=64";
    class       volScalarField;
    location    "0";
    object      omega;
}
// * * * * * * * * * * * * * * * * * * * * * * * * * * * * * * * * * * * * * //

dimensions      [0 0 -1 0 0 0 0];

internalField   uniform 0.1;

boundaryField
{
    outlet
    {
        type            zeroGradient;
    }
    propeller
    {
        type            omegaWallFunction;
        value           uniform 0.1;
    }
    AMI1
    {
        type            cyclicAMI;
        value           uniform 0.1;
    }
    AMI2
    {
        type            cyclicAMI;
        value           uniform 0.1;
    }
}


// ************************************************************************* //
