/*--------------------------------*- C++ -*----------------------------------*\
| =========                 |                                                 |
| \\      /  F ield         | OpenFOAM: The Open Source CFD Toolbox           |
|  \\    /   O peration     | Version:  v2012                                 |
|   \\  /    A nd           | Website:  www.openfoam.com                      |
|    \\/     M anipulation  |                                                 |
\*---------------------------------------------------------------------------*/
FoamFile
{
    version     2.0;
    format      ascii;
    class       dictionary;
    location    "constant";
    object      dynamicMeshDict;
}
// * * * * * * * * * * * * * * * * * * * * * * * * * * * * * * * * * * * * * //

dynamicFvMesh   dynamicMotionSolverFvMesh;

motionSolverLibs ("fvMotionSolvers");

motionSolver    solidBody;

cellZone        rotatingZone;

solidBodyMotionFunction  rotatingMotion;

origin      (0 0 0);
axis        (0 0 1);
omega       628.3185307; // angular velocity of rotation in rad/s (10 = 95.5 rpm)
		// RPM to rad/s *2*pi/60
		// rad.s to RPM *60/2*pi

// ************************************************************************* //
